% ---------------------------------------------------------------------
% SOLVER
% ---------------------------------------------------------------------

SOLVER              = INC_RANS
KIND_TURB_MODEL     = SST
INC_ENERGY_EQUATION = YES

% ---------------------------------------------------------------------
% INITIAL/BOUNDARY CONDITIONS
% ---------------------------------------------------------------------

REF_DIMENSIONALIZATION = DIMENSIONAL
INC_NONDIM             = DIMENSIONAL

INIT_OPTION            = REYNOLDS
FREESTREAM_OPTION      = TEMPERATURE_FS
FREESTREAM_PRESSURE    = 101325.0
FREESTREAM_TEMPERATURE = 873.15

INC_TEMPERATURE_INIT   = 873.15
INC_VELOCITY_INIT      = (0.0, 0.0, 10.0)

INC_INLET_TYPE  = VELOCITY_INLET
INC_OUTLET_TYPE = PRESSURE_OUTLET

MARKER_INTERNAL = ( fluid )
MARKER_INLET    = ( fluid_inlet, 873.15, 0.0, 1.0, 0.0, 0.0 )
MARKER_OUTLET   = ( fluid_outlet, 0.0)
MARKER_SYM      = ( fluid_sym_main, fluid_sym_slice )
MARKER_HEATFLUX = ( hole_wall, 0.0 )

% ---------------------------------------------------------------------
% MATERIAL PROPERTIES
% ---------------------------------------------------------------------

FLUID_MODEL       = INC_IDEAL_GAS
INC_DENSITY_MODEL = VARIABLE

VISCOSITY_MODEL     = SUTHERLAND
MU_REF              = 1.716E-5
MU_T_REF            = 273.15
SUTHERLAND_CONSTANT = 110.4

% VISCOSITY_MODEL = CONSTANT_VISCOSITY
% MU_CONSTANT     = 4.0e-05

% ---------------------------------------------------------------------
% NUMERICAL
% ---------------------------------------------------------------------

CFL_NUMBER           = 10.0
MUSCL_FLOW           = YES
CONV_NUM_METHOD_FLOW = FDS
CONV_RESIDUAL_MINVAL = -12

% ---------------------------------------------------------------------
% INPUT/OUTPUT INFORMATION
% ---------------------------------------------------------------------

CONV_FILENAME  = history_fluid
MESH_FILENAME  = honeycomb_1_12_fluid.su2
