% ---------------------------------------------------------------------
% SOLVER
% ---------------------------------------------------------------------

SOLVER              = INC_NAVIER_STOKES
INC_ENERGY_EQUATION = YES

% ---------------------------------------------------------------------
% INITIAL/BOUNDARY CONDITIONS
% ---------------------------------------------------------------------

REF_DIMENSIONALIZATION = DIMENSIONAL
INC_NONDIM             = DIMENSIONAL
FREESTREAM_TEMPERATURE = 300.0
INC_VELOCITY_INIT      = (0.0, 0.0, 10.0)

INC_INLET_TYPE  = VELOCITY_INLET
INC_OUTLET_TYPE = PRESSURE_OUTLET

MARKER_INTERNAL = ( fluid )
MARKER_INLET    = ( fluid_inlet, 873.15, 0.0, 1.0, 0.0, 0.0 )
MARKER_OUTLET   = ( fluid_outlet, 0.0)
MARKER_SYM      = ( fluid_sym_main, fluid_sym_slice )

% ---------------------------------------------------------------------
% MATERIAL PROPERTIES
% ---------------------------------------------------------------------

FLUID_MODEL     = INC_IDEAL_GAS
VISCOSITY_MODEL = CONSTANT_VISCOSITY
MU_CONSTANT     = 4.0e-05

% ---------------------------------------------------------------------
% NUMERICAL
% ---------------------------------------------------------------------

CFL_NUMBER           = 100.0
MUSCL_FLOW           = YES
CONV_NUM_METHOD_FLOW = FDS
CONV_RESIDUAL_MINVAL = -12

% ---------------------------------------------------------------------
% INPUT/OUTPUT INFORMATION
% ---------------------------------------------------------------------

TABULAR_FORMAT = CSV
CONV_FILENAME  = history_fluid
MESH_FILENAME  = honeycomb_1_12_fluid.su2
