% ------------- DIRECT, ADJOINT, AND LINEARIZED PROBLEM DEFINITION ------------%

SOLVER= HEAT_EQUATION

% -------------------- BOUNDARY CONDITION DEFINITION --------------------------%

MARKER_INTERNAL = ( solid )
MARKER_HEATFLUX = ( solid_inlet, 0.0, solid_outlet, 0.0 )
MARKER_SYM      = ( solid_sym_main, solid_sym_outer, solid_sym_slice )

% ---------------- (SOLIDS) CONDUCTION CONDITION DEFINITION -------------------%

INC_NONDIM= DIMENSIONAL
FREESTREAM_TEMPERATURE= 300.0

MATERIAL_DENSITY= 3000
SPECIFIC_HEAT_CP= 1000
THERMAL_CONDUCTIVITY_CONSTANT= 5

% ------------- COMMON PARAMETERS DEFINING THE NUMERICAL METHOD ---------------%

CFL_NUMBER= 100.0

% -------------------- HEAT NUMERICAL METHOD DEFINITION -----------------------%

TIME_DISCRE_HEAT= EULER_IMPLICIT

% ------------------------- INPUT/OUTPUT INFORMATION --------------------------%

TABULAR_FORMAT= CSV
CONV_FILENAME= results/history_solid
MESH_FILENAME= ../geometry/honeycomb_1_12.su2
