%%%%%%%%%%%%%%%%%%%%%%%%%%%%%%%%%%%%%%%%%%%%%%%%%%%%%%%%%%%%%%%%%%%%%%%%%%%%%%%%
%                                                                              %
% SU2 configuration file                                                       %
% Case description: Supersonic flow over a wedge in a channel                  %
% Author: Thomas D. Economon (refactored by Walter Dal Maz Silva)              %
% Institution: Stanford University                                             %
% Date: 2025.12.04                                                             %
% File Version 8.3.0 "Harrier"                                                 %
%                                                                              %
%%%%%%%%%%%%%%%%%%%%%%%%%%%%%%%%%%%%%%%%%%%%%%%%%%%%%%%%%%%%%%%%%%%%%%%%%%%%%%%%

%%%%%%%%%%%%%%%%%%%%%%%%%%%%%%%%%%%%%%%%%%%%%%%%%%%%%%%%%%%%%%%%%%%%%%%%%%%%%%%%
% ------------- DIRECT, ADJOINT, AND LINEARIZED PROBLEM DEFINITION ------------%
%%%%%%%%%%%%%%%%%%%%%%%%%%%%%%%%%%%%%%%%%%%%%%%%%%%%%%%%%%%%%%%%%%%%%%%%%%%%%%%%

SOLVER                 = EULER
MATH_PROBLEM           = DIRECT
RESTART_SOL            = NO

%%%%%%%%%%%%%%%%%%%%%%%%%%%%%%%%%%%%%%%%%%%%%%%%%%%%%%%%%%%%%%%%%%%%%%%%%%%%%%%%
% ------------------------------- SOLVER CONTROL ------------------------------%
%%%%%%%%%%%%%%%%%%%%%%%%%%%%%%%%%%%%%%%%%%%%%%%%%%%%%%%%%%%%%%%%%%%%%%%%%%%%%%%%

ITER                 = 10000
CONV_FIELD           = RMS_DENSITY
CONV_RESIDUAL_MINVAL = -13
CONV_STARTITER       = 10
CONV_CAUCHY_ELEMS    = 100
CONV_CAUCHY_EPS      = 1E-10

%%%%%%%%%%%%%%%%%%%%%%%%%%%%%%%%%%%%%%%%%%%%%%%%%%%%%%%%%%%%%%%%%%%%%%%%%%%%%%%%
% -------------------- COMPRESSIBLE FREE-STREAM DEFINITION --------------------%
%%%%%%%%%%%%%%%%%%%%%%%%%%%%%%%%%%%%%%%%%%%%%%%%%%%%%%%%%%%%%%%%%%%%%%%%%%%%%%%%

MACH_NUMBER            = 2.0
AOA                    = 0.0
SIDESLIP_ANGLE         = 0.0
FREESTREAM_PRESSURE    = 100000.0
FREESTREAM_TEMPERATURE = 300.0

%%%%%%%%%%%%%%%%%%%%%%%%%%%%%%%%%%%%%%%%%%%%%%%%%%%%%%%%%%%%%%%%%%%%%%%%%%%%%%%%
% ---------------------- REFERENCE VALUE DEFINITION ---------------------------%
%%%%%%%%%%%%%%%%%%%%%%%%%%%%%%%%%%%%%%%%%%%%%%%%%%%%%%%%%%%%%%%%%%%%%%%%%%%%%%%%

REF_ORIGIN_MOMENT_X = 0.25
REF_ORIGIN_MOMENT_Y = 0.00
REF_ORIGIN_MOMENT_Z = 0.00
REF_LENGTH          = 1.0
REF_AREA            = 1.0

%%%%%%%%%%%%%%%%%%%%%%%%%%%%%%%%%%%%%%%%%%%%%%%%%%%%%%%%%%%%%%%%%%%%%%%%%%%%%%%%
% -------------------- BOUNDARY CONDITION DEFINITION --------------------------%
%%%%%%%%%%%%%%%%%%%%%%%%%%%%%%%%%%%%%%%%%%%%%%%%%%%%%%%%%%%%%%%%%%%%%%%%%%%%%%%%

MARKER_EULER            = ( upper, lower )
MARKER_SUPERSONIC_INLET = ( inlet, 300.0, 100000.0, 695.4290761824674, 0.0, 0.0 )
MARKER_OUTLET           = ( outlet, 10000.0 )

%%%%%%%%%%%%%%%%%%%%%%%%%%%%%%%%%%%%%%%%%%%%%%%%%%%%%%%%%%%%%%%%%%%%%%%%%%%%%%%%
% ------------------------- SURFACES IDENTIFICATION ---------------------------%
%%%%%%%%%%%%%%%%%%%%%%%%%%%%%%%%%%%%%%%%%%%%%%%%%%%%%%%%%%%%%%%%%%%%%%%%%%%%%%%%

MARKER_PLOTTING   = ( lower )
MARKER_MONITORING = ( upper, lower )

%%%%%%%%%%%%%%%%%%%%%%%%%%%%%%%%%%%%%%%%%%%%%%%%%%%%%%%%%%%%%%%%%%%%%%%%%%%%%%%%
% ------------- COMMON PARAMETERS DEFINING THE NUMERICAL METHOD ---------------%
%%%%%%%%%%%%%%%%%%%%%%%%%%%%%%%%%%%%%%%%%%%%%%%%%%%%%%%%%%%%%%%%%%%%%%%%%%%%%%%%

NUM_METHOD_GRAD = WEIGHTED_LEAST_SQUARES
CFL_NUMBER      = 5.0
CFL_ADAPT       = NO
CFL_ADAPT_PARAM = ( 0.1, 2.0, 5.0, 1e10 )
RK_ALPHA_COEFF  = ( 0.66667, 0.66667, 1.000000 )

%%%%%%%%%%%%%%%%%%%%%%%%%%%%%%%%%%%%%%%%%%%%%%%%%%%%%%%%%%%%%%%%%%%%%%%%%%%%%%%%
% ------------- SLOPE LIMITER AND DISSIPATION SENSOR DEFINITION ---------------%
%%%%%%%%%%%%%%%%%%%%%%%%%%%%%%%%%%%%%%%%%%%%%%%%%%%%%%%%%%%%%%%%%%%%%%%%%%%%%%%%

MUSCL_FLOW           = YES
SLOPE_LIMITER_FLOW   = NONE
VENKAT_LIMITER_COEFF = 0.006
JST_SENSOR_COEFF     = ( 0.5, 0.02 )

%%%%%%%%%%%%%%%%%%%%%%%%%%%%%%%%%%%%%%%%%%%%%%%%%%%%%%%%%%%%%%%%%%%%%%%%%%%%%%%%
% ------------------------- LINEAR SOLVER DEFINITION --------------------------%
%%%%%%%%%%%%%%%%%%%%%%%%%%%%%%%%%%%%%%%%%%%%%%%%%%%%%%%%%%%%%%%%%%%%%%%%%%%%%%%%

LINEAR_SOLVER       = FGMRES
LINEAR_SOLVER_PREC  = ILU
LINEAR_SOLVER_ERROR = 1E-6
LINEAR_SOLVER_ITER  = 20

%%%%%%%%%%%%%%%%%%%%%%%%%%%%%%%%%%%%%%%%%%%%%%%%%%%%%%%%%%%%%%%%%%%%%%%%%%%%%%%%
% -------------------------- MULTIGRID PARAMETERS -----------------------------%
%%%%%%%%%%%%%%%%%%%%%%%%%%%%%%%%%%%%%%%%%%%%%%%%%%%%%%%%%%%%%%%%%%%%%%%%%%%%%%%%

MGLEVEL              = 3
MGCYCLE              = W_CYCLE
MG_PRE_SMOOTH        = ( 1, 2, 3, 3 )
MG_POST_SMOOTH       = ( 0, 0, 0, 0 )
MG_CORRECTION_SMOOTH = ( 0, 0, 0, 0 )
MG_DAMP_RESTRICTION  = 1.0
MG_DAMP_PROLONGATION = 1.0

%%%%%%%%%%%%%%%%%%%%%%%%%%%%%%%%%%%%%%%%%%%%%%%%%%%%%%%%%%%%%%%%%%%%%%%%%%%%%%%%
% -------------------- FLOW NUMERICAL METHOD DEFINITION -----------------------%
%%%%%%%%%%%%%%%%%%%%%%%%%%%%%%%%%%%%%%%%%%%%%%%%%%%%%%%%%%%%%%%%%%%%%%%%%%%%%%%%

CONV_NUM_METHOD_FLOW = HLLC
TIME_DISCRE_FLOW     = EULER_IMPLICIT

%%%%%%%%%%%%%%%%%%%%%%%%%%%%%%%%%%%%%%%%%%%%%%%%%%%%%%%%%%%%%%%%%%%%%%%%%%%%%%%%
% ----------------------- SCREEN/HISTORY VOLUME OUTPUT ------------------------%
%%%%%%%%%%%%%%%%%%%%%%%%%%%%%%%%%%%%%%%%%%%%%%%%%%%%%%%%%%%%%%%%%%%%%%%%%%%%%%%%

SCREEN_OUTPUT=(INNER_ITER, WALL_TIME, RMS_DENSITY, RMS_ENERGY, LIFT, DRAG)

%%%%%%%%%%%%%%%%%%%%%%%%%%%%%%%%%%%%%%%%%%%%%%%%%%%%%%%%%%%%%%%%%%%%%%%%%%%%%%%%
% ----------------------- INPUT/OUTPUT FILE INFORMATION -----------------------%
%%%%%%%%%%%%%%%%%%%%%%%%%%%%%%%%%%%%%%%%%%%%%%%%%%%%%%%%%%%%%%%%%%%%%%%%%%%%%%%%

MESH_FILENAME         = mesh.su2
MESH_FORMAT           = SU2
MESH_OUT_FILENAME     = sol_mesh.su2
SOLUTION_FILENAME     = sol_flow
SOLUTION_ADJ_FILENAME = sol_adj
TABULAR_FORMAT        = CSV
CONV_FILENAME         = sol_history
RESTART_FILENAME      = sol_restart_flow
RESTART_ADJ_FILENAME  = sol_restart_adj
VOLUME_FILENAME       = sol_volume_flow
VOLUME_ADJ_FILENAME   = sol_volume_adj
GRAD_OBJFUNC_FILENAME = sol_of_grad.dat
SURFACE_FILENAME      = sol_surface_flow
SURFACE_ADJ_FILENAME  = sol_surface_adj

%%%%%%%%%%%%%%%%%%%%%%%%%%%%%%%%%%%%%%%%%%%%%%%%%%%%%%%%%%%%%%%%%%%%%%%%%%%%%%%%
% ------------------------ DESIGN VARIABLE PARAMETERS -------------------------%
%%%%%%%%%%%%%%%%%%%%%%%%%%%%%%%%%%%%%%%%%%%%%%%%%%%%%%%%%%%%%%%%%%%%%%%%%%%%%%%%

DV_KIND  = SCALE_GRID
DV_PARAM = ( 1.0 )
DV_VALUE = 10.0

%%%%%%%%%%%%%%%%%%%%%%%%%%%%%%%%%%%%%%%%%%%%%%%%%%%%%%%%%%%%%%%%%%%%%%%%%%%%%%%%
% ----------------------------------- EOF -------------------------------------%
%%%%%%%%%%%%%%%%%%%%%%%%%%%%%%%%%%%%%%%%%%%%%%%%%%%%%%%%%%%%%%%%%%%%%%%%%%%%%%%%